D0
     RDKit          3D

 11 10  0  0  0  0  0  0  0  0999 V2000
    1.2163   -0.2429    0.2118 C   0  0  0  0  0  0  0  0  0  0  0  0
    0.0371    0.6638   -0.0647 C   0  0  0  0  0  0  0  0  0  0  0  0
   -1.2122   -0.1893   -0.2052 C   0  0  0  0  0  0  0  0  0  0  0  0
    0.8461   -1.2807    0.4517 H   0  0  0  0  0  0  0  0  0  0  0  0
    1.8957   -0.3444   -0.6398 H   0  0  0  0  0  0  0  0  0  0  0  0
    1.7051    0.1051    1.1445 H   0  0  0  0  0  0  0  0  0  0  0  0
   -0.1457    1.3872    0.7627 H   0  0  0  0  0  0  0  0  0  0  0  0
    0.2449    1.2465   -0.9791 H   0  0  0  0  0  0  0  0  0  0  0  0
   -1.5772   -0.2440   -1.2417 H   0  0  0  0  0  0  0  0  0  0  0  0
   -0.9820   -1.2464    0.0937 H   0  0  0  0  0  0  0  0  0  0  0  0
   -2.0281    0.1451    0.4660 H   0  0  0  0  0  0  0  0  0  0  0  0
  1  2  1  0
  2  3  1  0
  1  4  1  0
  1  5  1  0
  1  6  1  0
  2  7  1  0
  2  8  1  0
  3  9  1  0
  3 10  1  0
  3 11  1  0
M  END
$$$$
D1
     RDKit          3D

 30 31  0  0  0  0  0  0  0  0999 V2000
   -2.9620   -1.3857    0.5529 C   0  0  0  0  0  0  0  0  0  0  0  0
   -1.5089   -1.0507    0.3113 C   0  0  0  0  0  0  0  0  0  0  0  0
   -1.2813    0.4133    0.1008 C   0  0  0  0  0  0  0  0  0  0  0  0
   -1.7577    1.1263    1.3681 C   0  0  0  0  0  0  0  0  0  0  0  0
   -2.0851    0.9811   -1.0383 C   0  0  0  0  0  0  0  0  0  0  0  0
    0.1084    0.7007   -0.0448 N   0  0  0  0  0  0  0  0  0  0  0  0
    0.6698    1.9043   -0.2483 C   0  0  0  0  0  0  0  0  0  0  0  0
    2.0068    1.7443   -0.3304 N   0  0  0  0  0  0  0  0  0  0  0  0
    2.3150    0.4479   -0.1817 C   0  0  0  0  0  0  0  0  0  0  0  0
    3.4829   -0.2988   -0.1726 C   0  0  0  0  0  0  0  0  0  0  0  0
    4.6998    0.4048   -0.3603 N   0  0  0  0  0  0  0  0  0  0  0  0
    3.4720   -1.6202    0.0041 N   0  0  0  0  0  0  0  0  0  0  0  0
    2.2984   -2.2553    0.1792 C   0  0  0  0  0  0  0  0  0  0  0  0
    1.1581   -1.5436    0.1726 N   0  0  0  0  0  0  0  0  0  0  0  0
    1.1160   -0.2111   -0.0014 C   0  0  0  0  0  0  0  0  0  0  0  0
   -3.0270   -2.5061    0.5723 H   0  0  0  0  0  0  0  0  0  0  0  0
   -3.6340   -0.9549   -0.2208 H   0  0  0  0  0  0  0  0  0  0  0  0
   -3.3119   -1.0358    1.5447 H   0  0  0  0  0  0  0  0  0  0  0  0
   -1.1176   -1.6858   -0.5051 H   0  0  0  0  0  0  0  0  0  0  0  0
   -0.9615   -1.3435    1.2338 H   0  0  0  0  0  0  0  0  0  0  0  0
   -2.8545    1.0528    1.3633 H   0  0  0  0  0  0  0  0  0  0  0  0
   -1.3869    2.1732    1.3416 H   0  0  0  0  0  0  0  0  0  0  0  0
   -1.3551    0.5385    2.2116 H   0  0  0  0  0  0  0  0  0  0  0  0
   -3.1730    0.9389   -0.8230 H   0  0  0  0  0  0  0  0  0  0  0  0
   -1.8417    2.0814   -1.0716 H   0  0  0  0  0  0  0  0  0  0  0  0
   -1.8178    0.5607   -2.0145 H   0  0  0  0  0  0  0  0  0  0  0  0
    0.1797    2.8540   -0.3368 H   0  0  0  0  0  0  0  0  0  0  0  0
    4.7938    1.0008   -1.2077 H   0  0  0  0  0  0  0  0  0  0  0  0
    5.4573    0.2995    0.3584 H   0  0  0  0  0  0  0  0  0  0  0  0
    2.3181   -3.3309    0.3208 H   0  0  0  0  0  0  0  0  0  0  0  0
  1  2  1  0
  2  3  1  0
  3  4  1  0
  3  5  1  0
  3  6  1  0
  6  7  1  0
  7  8  2  0
  8  9  1  0
  9 10  2  0
 10 11  1  0
 10 12  1  0
 12 13  2  0
 13 14  1  0
 14 15  2  0
 15  6  1  0
 15  9  1  0
  1 16  1  0
  1 17  1  0
  1 18  1  0
  2 19  1  0
  2 20  1  0
  4 21  1  0
  4 22  1  0
  4 23  1  0
  5 24  1  0
  5 25  1  0
  5 26  1  0
  7 27  1  0
 11 28  1  0
 11 29  1  0
 13 30  1  0
M  END
$$$$
D2
     RDKit          3D

 31 32  0  0  0  0  0  0  0  0999 V2000
   -4.0711    0.3425    0.3928 C   0  0  0  0  0  0  0  0  0  0  0  0
   -3.3044    0.1043   -0.7991 N   0  0  0  0  0  0  0  0  0  0  0  0
   -3.3602   -1.2273   -1.2829 C   0  0  0  0  0  0  0  0  0  0  0  0
   -2.1082    0.8264   -0.9206 C   0  0  0  0  0  0  0  0  0  0  0  0
   -0.9935    0.4728    0.0308 C   0  0  0  0  0  0  0  0  0  0  0  0
    0.1448    1.4406   -0.3212 C   0  0  0  0  0  0  0  0  0  0  0  0
    1.3423    1.2381    0.5279 C   0  0  0  0  0  0  0  0  0  0  0  0
    1.7339    1.9947    1.5962 N   0  0  0  0  0  0  0  0  0  0  0  0
    2.8280    1.5293    2.1107 O   0  0  0  0  0  0  0  0  0  0  0  0
    3.2475    0.4791    1.4715 C   0  0  0  0  0  0  0  0  0  0  0  0
    4.3293   -0.3865    1.5890 C   0  0  0  0  0  0  0  0  0  0  0  0
    4.5016   -1.4505    0.7195 C   0  0  0  0  0  0  0  0  0  0  0  0
    5.5939   -2.2594    0.8978 F   0  0  0  0  0  0  0  0  0  0  0  0
    3.5848   -1.6686   -0.2908 C   0  0  0  0  0  0  0  0  0  0  0  0
    2.5066   -0.7955   -0.3986 C   0  0  0  0  0  0  0  0  0  0  0  0
    2.3258    0.2559    0.4490 C   0  0  0  0  0  0  0  0  0  0  0  0
   -4.2315    1.4437    0.4497 H   0  0  0  0  0  0  0  0  0  0  0  0
   -5.0797   -0.0847    0.2121 H   0  0  0  0  0  0  0  0  0  0  0  0
   -3.6428   -0.0769    1.3104 H   0  0  0  0  0  0  0  0  0  0  0  0
   -2.8808   -1.9946   -0.6198 H   0  0  0  0  0  0  0  0  0  0  0  0
   -4.4234   -1.5120   -1.5170 H   0  0  0  0  0  0  0  0  0  0  0  0
   -2.8152   -1.2730   -2.2516 H   0  0  0  0  0  0  0  0  0  0  0  0
   -1.6892    0.6506   -1.9515 H   0  0  0  0  0  0  0  0  0  0  0  0
   -2.3186    1.9265   -0.8850 H   0  0  0  0  0  0  0  0  0  0  0  0
   -0.6525   -0.5479   -0.1612 H   0  0  0  0  0  0  0  0  0  0  0  0
   -1.3156    0.6288    1.0668 H   0  0  0  0  0  0  0  0  0  0  0  0
    0.4407    1.2618   -1.3747 H   0  0  0  0  0  0  0  0  0  0  0  0
   -0.2168    2.4880   -0.2774 H   0  0  0  0  0  0  0  0  0  0  0  0
    5.0264   -0.1951    2.3833 H   0  0  0  0  0  0  0  0  0  0  0  0
    3.7250   -2.5009   -0.9674 H   0  0  0  0  0  0  0  0  0  0  0  0
    1.7730   -0.9568   -1.1886 H   0  0  0  0  0  0  0  0  0  0  0  0
  1  2  1  0
  2  3  1  0
  2  4  1  0
  4  5  1  0
  5  6  1  0
  6  7  1  0
  7  8  2  0
  8  9  1  0
  9 10  1  0
 10 11  2  0
 11 12  1  0
 12 13  1  0
 12 14  2  0
 14 15  1  0
 15 16  2  0
 16  7  1  0
 16 10  1  0
  1 17  1  0
  1 18  1  0
  1 19  1  0
  3 20  1  0
  3 21  1  0
  3 22  1  0
  4 23  1  0
  4 24  1  0
  5 25  1  0
  5 26  1  0
  6 27  1  0
  6 28  1  0
 11 29  1  0
 14 30  1  0
 15 31  1  0
M  END
$$$$
D3
     RDKit          3D

  7  6  0  0  0  0  0  0  0  0999 V2000
    1.2749   -0.1318   -1.1423 C   0  0  0  0  0  0  0  0  0  0  0  0
    0.3590   -0.0489   -0.3347 C   0  0  0  0  0  0  0  0  0  0  0  0
   -0.7263    0.0681    0.6417 C   0  0  0  0  0  0  0  0  0  0  0  0
    2.0644   -0.1880   -1.8475 H   0  0  0  0  0  0  0  0  0  0  0  0
   -0.3877    0.7464    1.4759 H   0  0  0  0  0  0  0  0  0  0  0  0
   -1.6200    0.5081    0.1484 H   0  0  0  0  0  0  0  0  0  0  0  0
   -0.9644   -0.9539    1.0586 H   0  0  0  0  0  0  0  0  0  0  0  0
  1  2  3  0
  2  3  1  0
  1  4  1  0
  3  5  1  0
  3  6  1  0
  3  7  1  0
M  END
$$$$
D4
     RDKit          3D

 14 15  0  0  0  0  0  0  0  0999 V2000
   -3.0746    1.0012    0.3245 F   0  0  0  0  0  0  0  0  0  0  0  0
   -1.7932    0.5224    0.1796 C   0  0  0  0  0  0  0  0  0  0  0  0
   -1.5469   -0.8111   -0.0437 C   0  0  0  0  0  0  0  0  0  0  0  0
   -0.2503   -1.2937   -0.1900 C   0  0  0  0  0  0  0  0  0  0  0  0
    0.8190   -0.4233   -0.1111 C   0  0  0  0  0  0  0  0  0  0  0  0
    2.1800   -0.5873   -0.2108 C   0  0  0  0  0  0  0  0  0  0  0  0
    2.6930    0.6396   -0.0456 N   0  0  0  0  0  0  0  0  0  0  0  0
    1.7359    1.4983    0.1416 O   0  0  0  0  0  0  0  0  0  0  0  0
    0.5657    0.9159    0.1134 C   0  0  0  0  0  0  0  0  0  0  0  0
   -0.7325    1.3958    0.2595 C   0  0  0  0  0  0  0  0  0  0  0  0
   -2.3832   -1.4835   -0.1041 H   0  0  0  0  0  0  0  0  0  0  0  0
   -0.0325   -2.3390   -0.3664 H   0  0  0  0  0  0  0  0  0  0  0  0
    2.7677   -1.4712   -0.3819 H   0  0  0  0  0  0  0  0  0  0  0  0
   -0.9481    2.4358    0.4349 H   0  0  0  0  0  0  0  0  0  0  0  0
  1  2  1  0
  2  3  2  0
  3  4  1  0
  4  5  2  0
  5  6  1  0
  6  7  2  0
  7  8  1  0
  8  9  1  0
  9 10  2  0
 10  2  1  0
  9  5  1  0
  3 11  1  0
  4 12  1  0
  6 13  1  0
 10 14  1  0
M  END
$$$$
